test/data/dist/ShortCircuitCases/ieee123_FaultStudy.Txt
FAULT STUDY REPORT

ALL-Node Fault Currents

Bus             Node 1  X/R        Node 2  X/R        Node 3  X/R   ...  (Amps)

"SOURCEBUS",      2569,   3.3,       2572,   3.3,       2572,   3.3
"150",          13483,   3.5,      13496,   3.6,      13525,   3.5
"150R",         13481,   3.5,      13494,   3.6,      13523,   3.5
"149",          13481,   3.5,      13494,   3.6,      13523,   3.5
"1",            10962,   2.4,      11135,   2.7,      10878,   2.6
"2",             8407,   2.0
"3",             7716,   1.9
"7",             9670,   1.9,       9891,   2.3,       9512,   2.3
"4",             6338,   1.7
"5",             5698,   1.6
"6",             4733,   1.5
"8",             8989,   1.8,       9221,   2.1,       8795,   2.1
"12",            6326,   1.6
"9",             6251,   1.6
"13",            8130,   1.6,       8372,   1.9,       7906,   1.9
"9R",            6247,   1.6
"14",            4517,   1.4
"34",            5988,   1.5
"18",            6511,   1.5,       6499,   1.8,       6248,   1.6
"11",            3879,   1.3
"10",            3878,   1.3
"15",            5519,   1.5
"16",            4257,   1.4
"17",            4321,   1.4
"19",            4306,   1.4
"21",            5966,   1.5,       5884,   1.8,       5671,   1.6
"20",            3576,   1.3
"22",            3415,   1.4
"23",            5577,   1.5,       5453,   1.8,       5270,   1.6
"24",            3121,   1.4
"25",            5204,   1.6,       5047,   1.8,       4890,   1.6
"25R",           4631,   2.6,       4681,   1.1
"26",            4200,   2.7,       4234,   1.1
"28",            4962,   1.6,       4788,   1.8,       4647,   1.6
"27",            3912,   2.8,       3938,   1.1
"31",            3051,   1.5
"33",            2546,   1.5
"29",            4628,   1.6,       4436,   1.9,       4312,   1.6
"30",            4290,   1.6,       4086,   1.9,       3979,   1.6
"250",           4118,   1.7,       3909,   1.9,       3810,   1.6
"32",            2700,   1.5
"35",            5952,   1.5,       6021,   1.7,       5817,   1.6
"36",            4559,   1.1,       4483,   2.8
"40",            5681,   1.4,       5790,   1.6,       5573,   1.6
"37",            3149,   1.5
"38",            3288,   1.5
"39",            2857,   1.4
"41",            3656,   1.4
"42",            5464,   1.4,       5598,   1.6,       5377,   1.6
"43",            3287,   1.3
"44",            5323,   1.4,       5468,   1.6,       5251,   1.6
"45",            3655,   1.3
"47",            5180,   1.4,       5332,   1.6,       5125,   1.6
"46",            3150,   1.3
"48",            4973,   1.4,       5136,   1.6,       4949,   1.6
"49",            5034,   1.4,       5190,   1.6,       5018,   1.6
"50",            4919,   1.4,       5076,   1.5,       4934,   1.6
"51",            4832,   1.4,       4988,   1.5,       4870,   1.6
"151",           4735,   1.4,       4881,   1.5,       4801,   1.6
"52",            7108,   1.5,       7385,   1.8,       6914,   1.8
"53",            6733,   1.4,       7009,   1.8,       6550,   1.8
"54",            6533,   1.4,       6805,   1.8,       6356,   1.8
"55",            5934,   1.4,       6247,   1.8,       5795,   1.8
"57",            6049,   1.4,       6280,   1.7,       5973,   1.7
"56",            5436,   1.4,       5772,   1.8,       5325,   1.9
"58",            4144,   1.4
"60",            5413,   1.3,       5604,   1.5,       5441,   1.6
"59",            3612,   1.3
"61",            4711,   1.4,       4887,   1.6,       4664,   1.6
"62",            4885,   1.2,       5100,   1.3,       4948,   1.4
"63",            4567,   1.1,       4790,   1.2,       4646,   1.3
"64",            4029,   1.0,       4260,   1.1,       4132,   1.2
"65",            3516,   0.9,       3740,   1.0,       3635,   1.1
"66",            3198,   0.9,       3414,   0.9,       3323,   1.0
"67",            5232,   1.3,       5391,   1.4,       5270,   1.5
"68",            3655,   1.2
"72",            4882,   1.3,       5028,   1.4,       4965,   1.5
"97",            5096,   1.3,       5245,   1.4,       5153,   1.5
"69",            3190,   1.2
"70",            2772,   1.1
"71",            2494,   1.1
"73",            3324,   1.2
"76",            4657,   1.3,       4797,   1.4,       4764,   1.5
"74",            2852,   1.1
"75",            2451,   1.1
"77",            4273,   1.4,       4340,   1.4,       4347,   1.5
"86",            3996,   1.4,       4112,   1.3,       4159,   1.5
"78",            4187,   1.4,       4238,   1.4,       4254,   1.5
"79",            4008,   1.4,       4030,   1.4,       4063,   1.5
"80",            3808,   1.5,       3800,   1.4,       3849,   1.5
"81",            3685,   1.5,       3659,   1.5,       3719,   1.5
"82",            3522,   1.5,       3475,   1.5,       3547,   1.5
"84",            2131,   1.3
"83",            3372,   1.6,       3309,   1.5,       3390,   1.5
"85",            1863,   1.2
"87",            3694,   1.4,       3758,   1.3,       3825,   1.5
"88",            2545,   1.2
"89",            3532,   1.4,       3571,   1.3,       3649,   1.5
"90",            2413,   1.2
"91",            3410,   1.5,       3432,   1.3,       3517,   1.4
"92",            2282,   1.2
"93",            3297,   1.5,       3304,   1.3,       3396,   1.4
"94",            2168,   1.2
"95",            3157,   1.5,       3148,   1.3,       3247,   1.4
"96",            2172,   1.2
"98",            4742,   1.4,       4870,   1.4,       4840,   1.5
"99",            4163,   1.4,       4266,   1.4,       4317,   1.6
"100",           3903,   1.5,       3997,   1.4,       4077,   1.6
"450",           3328,   1.6,       3397,   1.4,       3531,   1.6
"197",           5096,   1.3,       5245,   1.4,       5153,   1.5
"101",           4978,   1.3,       5119,   1.4,       5049,   1.5
"102",           3465,   1.2
"105",           4879,   1.4,       5015,   1.4,       4958,   1.5
"103",           2986,   1.2
"104",           2297,   1.1
"106",           3418,   1.2
"108",           4800,   1.4,       4932,   1.4,       4882,   1.5
"107",           2673,   1.2
"109",           2976,   1.2
"300",           4735,   1.4,       4881,   1.5,       4801,   1.6
"110",           2635,   1.2
"111",           2154,   1.2
"112",           2514,   1.2
"113",           2107,   1.1
"114",           1914,   1.1
"135",           6511,   1.5,       6499,   1.8,       6248,   1.6
"152",           8130,   1.6,       8372,   1.9,       7906,   1.9
"160R",          5412,   1.3,       5603,   1.5,       5439,   1.6
"160",           5413,   1.3,       5604,   1.5,       5441,   1.6
"61S",           4711,   1.4,       4887,   1.6,       4664,   1.6
"610",           5362,   2.0,       5426,   2.0,       5400,   2.0


ONE-Node to ground Faults

                                      pu Node Voltages (L-N Volts if no base)
Bus         Node  Amps         Node 1     Node 2     Node 3    ...

"SOURCEBUS"    1         1612          0.000     19.847     19.955
"SOURCEBUS"    2         1615         19.959      0.000     19.837
"SOURCEBUS"    3         1613         19.812     20.005      0.000
"150"          1        15037          0.000      1.003      0.938
"150"          2        15008          0.929      0.000      0.999
"150"          3        15069          0.993      0.937      0.000
"150R"         1        15034          0.000      1.003      0.938
"150R"         2        15005          0.929      0.000      0.999
"150R"         3        15066          0.993      0.937      0.000
"149"          1        15034          0.000      1.003      0.938
"149"          2        15005          0.929      0.000      0.999
"149"          3        15066          0.993      0.937      0.000
"1"            1        10450          0.000      1.059      1.043
"1"            2        10509          1.048      0.000      1.041
"1"            3        10484          1.027      1.052      0.000
"2"            2         8407          0.000
"3"            3         7716          0.000
"7"            1         8646          0.000      1.088      1.084
"7"            2         8726          1.095      0.000      1.064
"7"            3         8667          1.045      1.099      0.000
"4"            3         6338          0.000
"5"            3         5698          0.000
"6"            3         4733          0.000
"8"            1         7808          0.000      1.101      1.105
"8"            2         7895          1.118      0.000      1.073
"8"            3         7823          1.051      1.122      0.000
"12"           2         6326          0.000
"9"            1         6251          0.000
"13"           1         6845          0.000      1.114      1.127
"13"           2         6938          1.144      0.000      1.082
"13"           3         6857          1.057      1.147      0.000
"9R"           1         6247          0.000
"14"           1         4517          0.000
"34"           3         5988          0.000
"18"           1         5102          0.000      1.138      1.174
"18"           2         5156          1.171      0.000      1.109
"18"           3         5095          1.099      1.182      0.000
"11"           1         3879          0.000
"10"           1         3878          0.000
"15"           3         5519          0.000
"16"           3         4257          0.000
"17"           3         4321          0.000
"19"           1         4306          0.000
"21"           1         4523          0.000      1.156      1.182
"21"           2         4571          1.176      0.000      1.125
"21"           3         4517          1.126      1.188      0.000
"20"           1         3576          0.000
"22"           2         3415          0.000
"23"           1         4134          0.000      1.167      1.188
"23"           2         4176          1.180      0.000      1.135
"23"           3         4127          1.143      1.194      0.000
"24"           3         3121          0.000
"25"           1         3777          0.000      1.178      1.195
"25"           2         3814          1.185      0.000      1.144
"25"           3         3768          1.158      1.199      0.000
"25R"          1         3776          0.000      1.195
"25R"          3         3767          1.158      0.000
"26"           1         3376          0.000      1.199
"26"           3         3377          1.167      0.000
"28"           1         3553          0.000      1.185      1.200
"28"           2         3588          1.188      0.000      1.150
"28"           3         3544          1.167      1.203      0.000
"27"           1         3116          0.000      1.201
"27"           3         3122          1.173      0.000
"31"           3         3051          0.000
"33"           1         2546          0.000
"29"           1         3249          0.000      1.195      1.204
"29"           2         3282          1.190      0.000      1.160
"29"           3         3240          1.183      1.206      0.000
"30"           1         2952          0.000      1.205      1.209
"30"           2         2984          1.193      0.000      1.170
"30"           3         2945          1.198      1.209      0.000
"250"          1         2805          0.000      1.210      1.212
"250"          2         2837          1.195      0.000      1.175
"250"          3         2799          1.205      1.211      0.000
"32"           3         2700          0.000
"35"           1         4627          0.000      1.147      1.180
"35"           2         4693          1.176      0.000      1.129
"35"           3         4628          1.104      1.191      0.000
"36"           1         3646          0.000      1.171
"36"           2         3715          1.180      0.000
"40"           1         4392          0.000      1.153      1.183
"40"           2         4464          1.180      0.000      1.135
"40"           3         4401          1.106      1.195      0.000
"37"           1         3149          0.000
"38"           2         3288          0.000
"39"           2         2857          0.000
"41"           3         3656          0.000
"42"           1         4208          0.000      1.156      1.187
"42"           2         4284          1.184      0.000      1.139
"42"           3         4222          1.107      1.199      0.000
"43"           2         3287          0.000
"44"           1         4091          0.000      1.157      1.189
"44"           2         4168          1.187      0.000      1.141
"44"           3         4108          1.107      1.202      0.000
"45"           1         3655          0.000
"47"           1         3974          0.000      1.157      1.192
"47"           2         4053          1.191      0.000      1.142
"47"           3         3995          1.106      1.206      0.000
"46"           1         3150          0.000
"48"           1         3795          0.000      1.161      1.195
"48"           2         3874          1.194      0.000      1.151
"48"           3         3816          1.111      1.209      0.000
"49"           1         3853          0.000      1.159      1.192
"49"           2         3931          1.191      0.000      1.150
"49"           3         3876          1.110      1.207      0.000
"50"           1         3757          0.000      1.161      1.193
"50"           2         3834          1.192      0.000      1.157
"50"           3         3781          1.113      1.209      0.000
"51"           1         3686          0.000      1.162      1.194
"51"           2         3761          1.192      0.000      1.162
"51"           3         3711          1.115      1.210      0.000
"151"          1         3608          0.000      1.161      1.195
"151"          2         3681          1.194      0.000      1.167
"151"          3         3635          1.117      1.214      0.000
"52"           1         5761          0.000      1.141      1.145
"52"           2         5862          1.163      0.000      1.107
"52"           3         5780          1.077      1.165      0.000
"53"           1         5387          0.000      1.148      1.153
"53"           2         5489          1.171      0.000      1.115
"53"           3         5408          1.083      1.173      0.000
"54"           1         5192          0.000      1.151      1.157
"54"           2         5294          1.175      0.000      1.119
"54"           3         5214          1.086      1.177      0.000
"55"           1         4603          0.000      1.175      1.163
"55"           2         4705          1.180      0.000      1.141
"55"           3         4632          1.106      1.182      0.000
"57"           1         4765          0.000      1.149      1.169
"57"           2         4855          1.182      0.000      1.130
"57"           3         4797          1.094      1.190      0.000
"56"           1         4133          0.000      1.194      1.168
"56"           2         4233          1.185      0.000      1.158
"56"           3         4166          1.121      1.188      0.000
"58"           2         4144          0.000
"60"           1         4240          0.000      1.139      1.191
"60"           2         4316          1.197      0.000      1.133
"60"           3         4281          1.093      1.217      0.000
"59"           2         3612          0.000
"61"           1         3555          0.000      1.176      1.198
"61"           2         3611          1.203      0.000      1.154
"61"           3         3587          1.124      1.221      0.000
"62"           1         3765          0.000      1.149      1.199
"62"           2         3843          1.205      0.000      1.143
"62"           3         3807          1.101      1.225      0.000
"63"           1         3487          0.000      1.155      1.203
"63"           2         3564          1.208      0.000      1.150
"63"           3         3528          1.107      1.228      0.000
"64"           1         3030          0.000      1.165      1.209
"64"           2         3105          1.214      0.000      1.161
"64"           3         3070          1.117      1.233      0.000
"65"           1         2607          0.000      1.177      1.212
"65"           2         2675          1.217      0.000      1.171
"65"           3         2644          1.127      1.238      0.000
"66"           1         2353          0.000      1.185      1.214
"66"           2         2416          1.219      0.000      1.178
"66"           3         2389          1.134      1.241      0.000
"67"           1         4085          0.000      1.135      1.201
"67"           2         4160          1.203      0.000      1.131
"67"           3         4129          1.093      1.225      0.000
"68"           1         3655          0.000
"72"           1         3769          0.000      1.141      1.208
"72"           2         3839          1.209      0.000      1.145
"72"           3         3818          1.105      1.232      0.000
"97"           1         3963          0.000      1.138      1.202
"97"           2         4036          1.203      0.000      1.138
"97"           3         4006          1.097      1.225      0.000
"69"           1         3190          0.000
"70"           1         2772          0.000
"71"           1         2494          0.000
"73"           3         3324          0.000
"76"           1         3569          0.000      1.145      1.214
"76"           2         3637          1.213      0.000      1.154
"76"           3         3618          1.112      1.238      0.000
"74"           3         2852          0.000
"75"           3         2451          0.000
"77"           1         3183          0.000      1.158      1.222
"77"           2         3249          1.218      0.000      1.170
"77"           3         3235          1.138      1.244      0.000
"86"           1         2999          0.000      1.157      1.225
"86"           2         3062          1.219      0.000      1.184
"86"           3         3051          1.134      1.247      0.000
"78"           1         3099          0.000      1.161      1.223
"78"           2         3165          1.219      0.000      1.174
"78"           3         3152          1.144      1.246      0.000
"79"           1         2931          0.000      1.166      1.226
"79"           2         2996          1.219      0.000      1.180
"79"           3         2984          1.155      1.248      0.000
"80"           1         2735          0.000      1.176      1.229
"80"           2         2796          1.223      0.000      1.191
"80"           3         2787          1.174      1.251      0.000
"81"           1         2620          0.000      1.182      1.231
"81"           2         2679          1.224      0.000      1.197
"81"           3         2671          1.183      1.253      0.000
"82"           1         2471          0.000      1.189      1.235
"82"           2         2528          1.226      0.000      1.205
"82"           3         2521          1.195      1.256      0.000
"84"           3         2131          0.000
"83"           1         2337          0.000      1.196      1.239
"83"           2         2392          1.229      0.000      1.212
"83"           3         2385          1.206      1.259      0.000
"85"           3         1863          0.000
"87"           1         2720          0.000      1.162      1.234
"87"           2         2784          1.223      0.000      1.191
"87"           3         2776          1.150      1.253      0.000
"88"           1         2545          0.000
"89"           1         2576          0.000      1.164      1.239
"89"           2         2638          1.226      0.000      1.195
"89"           3         2633          1.158      1.257      0.000
"90"           2         2413          0.000
"91"           1         2469          0.000      1.166      1.244
"91"           2         2531          1.228      0.000      1.197
"91"           3         2527          1.164      1.260      0.000
"92"           3         2282          0.000
"93"           1         2372          0.000      1.168      1.248
"93"           2         2433          1.230      0.000      1.200
"93"           3         2430          1.169      1.262      0.000
"94"           1         2168          0.000
"95"           1         2253          0.000      1.170      1.253
"95"           2         2313          1.234      0.000      1.202
"95"           3         2312          1.175      1.266      0.000
"96"           2         2172          0.000
"98"           1         3637          0.000      1.148      1.204
"98"           2         3705          1.203      0.000      1.156
"98"           3         3682          1.112      1.227      0.000
"99"           1         3122          0.000      1.163      1.209
"99"           2         3182          1.207      0.000      1.184
"99"           3         3169          1.136      1.233      0.000
"100"          1         2898          0.000      1.169      1.212
"100"          2         2954          1.209      0.000      1.196
"100"          3         2945          1.147      1.237      0.000
"450"          1         2407          0.000      1.188      1.216
"450"          2         2453          1.209      0.000      1.227
"450"          3         2451          1.173      1.242      0.000
"197"          1         3963          0.000      1.138      1.202
"197"          2         4036          1.203      0.000      1.138
"197"          3         4006          1.097      1.225      0.000
"101"          1         3854          0.000      1.142      1.200
"101"          2         3925          1.201      0.000      1.145
"101"          3         3895          1.102      1.223      0.000
"102"          3         3465          0.000
"105"          1         3761          0.000      1.146      1.201
"105"          2         3832          1.199      0.000      1.152
"105"          3         3800          1.106      1.222      0.000
"103"          3         2986          0.000
"104"          3         2297          0.000
"106"          2         3418          0.000
"108"          1         3687          0.000      1.150      1.201
"108"          2         3757          1.198      0.000      1.157
"108"          3         3720          1.109      1.222      0.000
"107"          2         2673          0.000
"109"          1         2976          0.000
"300"          1         3608          0.000      1.161      1.195
"300"          2         3681          1.194      0.000      1.167
"300"          3         3635          1.117      1.214      0.000
"110"          1         2635          0.000
"111"          1         2154          0.000
"112"          1         2514          0.000
"113"          1         2107          0.000
"114"          1         1914          0.000
"135"          1         5102          0.000      1.138      1.174
"135"          2         5156          1.171      0.000      1.109
"135"          3         5095          1.099      1.182      0.000
"152"          1         6845          0.000      1.114      1.127
"152"          2         6938          1.144      0.000      1.082
"152"          3         6857          1.057      1.147      0.000
"160R"         1         4239          0.000      1.139      1.191
"160R"         2         4315          1.197      0.000      1.133
"160R"         3         4280          1.093      1.217      0.000
"160"          1         4240          0.000      1.139      1.191
"160"          2         4316          1.197      0.000      1.133
"160"          3         4281          1.093      1.217      0.000
"61S"          1         3555          0.000      1.176      1.198
"61S"          2         3611          1.203      0.000      1.154
"61S"          3         3587          1.124      1.221      0.000
"610"          1            0          0.000      1.778      1.783
"610"          2            0          1.778      0.000      1.799
"610"          3            0          1.783      1.799      0.000

Adjacent Node-Node Faults

                                        pu Node Voltages (L-N Volts if no base)
Bus          Node-Node      Amps        Node 1     Node 2     Node 3    ...

"SOURCEBUS"   1   2        2225         8.089      8.089     16.178
"SOURCEBUS"   2   3        2229        16.176      8.088      8.088
"150"         1   2       11645         0.511      0.511      1.021
"150"         2   3       11705         1.013      0.509      0.509
"150R"        1   2       11643         0.511      0.511      1.021
"150R"        2   3       11703         1.013      0.509      0.509
"149"         1   2       11643         0.511      0.511      1.021
"149"         2   3       11703         1.013      0.509      0.509
"1"           1   2        9656         0.513      0.513      1.022
"1"           2   3        9504         1.011      0.512      0.511
"7"           1   2        8589         0.514      0.514      1.024
"7"           2   3        8363         1.011      0.513      0.513
"8"           1   2        8014         0.515      0.514      1.025
"8"           2   3        7759         1.012      0.514      0.514
"13"          1   2        7281         0.515      0.515      1.026
"13"          2   3        7004         1.013      0.515      0.515
"18"          1   2        5681         0.514      0.513      1.025
"18"          2   3        5466         1.015      0.518      0.518
"21"          1   2        5150         0.513      0.513      1.020
"21"          2   3        4951         1.018      0.518      0.518
"23"          1   2        4777         0.513      0.513      1.016
"23"          2   3        4590         1.021      0.518      0.518
"25"          1   2        4426         0.513      0.513      1.013
"25"          2   3        4250         1.023      0.519      0.518
"25R"         1   3        4422         0.510      0.510
"26"          1   3        4013         0.508      0.508
"28"          1   2        4201         0.513      0.513      1.012
"28"          2   3        4033         1.024      0.519      0.519
"27"          1   3        3740         0.507      0.507
"29"          1   2        3895         0.513      0.513      1.008
"29"          2   3        3736         1.027      0.518      0.518
"30"          1   2        3589         0.513      0.513      1.005
"30"          2   3        3441         1.029      0.518      0.518
"250"         1   2        3435         0.513      0.513      1.003
"250"         2   3        3292         1.031      0.518      0.518
"35"          1   2        5233         0.515      0.515      1.032
"35"          2   3        5105         1.012      0.517      0.517
"36"          1   2        4269         0.516      0.516
"40"          1   2        5024         0.516      0.515      1.034
"40"          2   3        4899         1.010      0.517      0.517
"42"          1   2        4852         0.516      0.516      1.036
"42"          2   3        4733         1.009      0.517      0.517
"44"          1   2        4736         0.516      0.516      1.037
"44"          2   3        4625         1.009      0.517      0.517
"47"          1   2        4616         0.517      0.517      1.038
"47"          2   3        4517         1.010      0.517      0.517
"48"          1   2        4439         0.518      0.517      1.041
"48"          2   3        4364         1.010      0.517      0.517
"49"          1   2        4487         0.517      0.517      1.041
"49"          2   3        4422         1.010      0.517      0.517
"50"          1   2        4383         0.517      0.517      1.043
"50"          2   3        4347         1.011      0.518      0.517
"51"          1   2        4302         0.517      0.517      1.045
"51"          2   3        4290         1.012      0.518      0.518
"151"         1   2        4204         0.517      0.517      1.047
"151"         2   3        4228         1.014      0.520      0.519
"52"          1   2        6416         0.517      0.517      1.030
"52"          2   3        6140         1.010      0.515      0.515
"53"          1   2        6089         0.517      0.517      1.031
"53"          2   3        5821         1.010      0.515      0.515
"54"          1   2        5911         0.518      0.518      1.032
"54"          2   3        5650         1.011      0.515      0.515
"55"          1   2        5411         0.519      0.519      1.034
"55"          2   3        5156         1.006      0.515      0.514
"57"          1   2        5434         0.518      0.518      1.035
"57"          2   3        5299         1.014      0.517      0.517
"56"          1   2        4989         0.520      0.520      1.035
"56"          2   3        4741         1.001      0.514      0.514
"60"          1   2        4814         0.519      0.519      1.037
"60"          2   3        4820         1.018      0.520      0.520
"61"          1   2        4207         0.518      0.518      1.034
"61"          2   3        4130         1.014      0.521      0.521
"62"          1   2        4370         0.520      0.520      1.038
"62"          2   3        4380         1.014      0.517      0.517
"63"          1   2        4099         0.521      0.520      1.039
"63"          2   3        4110         1.011      0.516      0.516
"64"          1   2        3636         0.522      0.521      1.040
"64"          2   3        3651         1.007      0.513      0.513
"65"          1   2        3187         0.523      0.523      1.040
"65"          2   3        3205         1.003      0.510      0.510
"66"          1   2        2907         0.525      0.525      1.040
"66"          2   3        2925         1.001      0.509      0.509
"67"          1   2        4631         0.519      0.519      1.039
"67"          2   3        4653         1.019      0.521      0.521
"72"          1   2        4309         0.520      0.520      1.042
"72"          2   3        4378         1.023      0.523      0.522
"97"          1   2        4505         0.519      0.519      1.040
"97"          2   3        4545         1.020      0.522      0.521
"76"          1   2        4103         0.521      0.521      1.044
"76"          2   3        4197         1.024      0.524      0.523
"77"          1   2        3715         0.522      0.522      1.040
"77"          2   3        3820         1.033      0.525      0.525
"86"          1   2        3502         0.521      0.521      1.052
"86"          2   3        3654         1.030      0.526      0.526
"78"          1   2        3629         0.523      0.522      1.039
"78"          2   3        3736         1.035      0.526      0.526
"79"          1   2        3452         0.523      0.523      1.037
"79"          2   3        3562         1.038      0.526      0.526
"80"          1   2        3257         0.524      0.524      1.034
"80"          2   3        3370         1.043      0.527      0.527
"81"          1   2        3138         0.525      0.525      1.033
"81"          2   3        3252         1.046      0.528      0.528
"82"          1   2        2982         0.525      0.525      1.032
"82"          2   3        3097         1.050      0.529      0.528
"83"          1   2        2841         0.526      0.526      1.030
"83"          2   3        2955         1.053      0.529      0.529
"87"          1   2        3203         0.522      0.522      1.049
"87"          2   3        3351         1.036      0.527      0.527
"89"          1   2        3044         0.523      0.522      1.048
"89"          2   3        3191         1.039      0.528      0.528
"91"          1   2        2927         0.523      0.523      1.048
"91"          2   3        3071         1.041      0.529      0.529
"93"          1   2        2818         0.523      0.523      1.047
"93"          2   3        2961         1.043      0.530      0.530
"95"          1   2        2686         0.523      0.523      1.047
"95"          2   3        2826         1.046      0.531      0.531
"98"          1   2        4178         0.519      0.519      1.044
"98"          2   3        4261         1.021      0.523      0.522
"99"          1   2        3649         0.520      0.520      1.048
"99"          2   3        3789         1.025      0.524      0.524
"100"         1   2        3413         0.520      0.520      1.050
"100"         2   3        3573         1.027      0.525      0.525
"450"         1   2        2893         0.520      0.519      1.055
"450"         2   3        3083         1.029      0.527      0.527
"197"         1   2        4505         0.519      0.519      1.040
"197"         2   3        4545         1.020      0.522      0.521
"101"         1   2        4397         0.519      0.519      1.042
"101"         2   3        4450         1.019      0.522      0.522
"105"         1   2        4309         0.518      0.518      1.044
"105"         2   3        4367         1.019      0.522      0.522
"108"         1   2        4239         0.517      0.517      1.046
"108"         2   3        4299         1.017      0.522      0.522
"300"         1   2        4204         0.517      0.517      1.047
"300"         2   3        4228         1.014      0.520      0.519
"135"         1   2        5681         0.514      0.513      1.025
"135"         2   3        5466         1.015      0.518      0.518
"152"         1   2        7281         0.515      0.515      1.026
"152"         2   3        7004         1.013      0.515      0.515
"160R"        1   2        4813         0.519      0.519      1.037
"160R"        2   3        4819         1.019      0.520      0.520
"160"         1   2        4814         0.519      0.519      1.037
"160"         2   3        4820         1.018      0.520      0.520
"61S"         1   2        4207         0.518      0.518      1.034
"61S"         2   3        4130         1.014      0.521      0.521
"610"         1   2        4665         0.519      0.517      1.036
"610"         2   3        4701         1.025      0.513      0.512
